# generated using pymatgen
data_Cr5S8
_symmetry_space_group_name_H-M   'P 1'
_cell_length_a   11.94462786
_cell_length_b   6.86830135
_cell_length_c   11.15587700
_cell_angle_alpha   90.00000000
_cell_angle_beta   91.34472723
_cell_angle_gamma   90.00000000
_symmetry_Int_Tables_number   1
_chemical_formula_structural   Cr5S8
_chemical_formula_sum   'Cr20 S32'
_cell_volume   914.96832356
_cell_formula_units_Z   4
loop_
 _symmetry_equiv_pos_site_id
 _symmetry_equiv_pos_as_xyz
  1  'x, y, z'
loop_
 _atom_type_symbol
 _atom_type_oxidation_number
  Cr3+  3.0
  Cr4+  4.0
  S2-  -2.0
loop_
 _atom_site_type_symbol
 _atom_site_label
 _atom_site_symmetry_multiplicity
 _atom_site_fract_x
 _atom_site_fract_y
 _atom_site_fract_z
 _atom_site_occupancy
  Cr3+  Cr0  1  0.49558099  0.50000000  0.26855118  1
  Cr3+  Cr1  1  0.00441901  0.00000000  0.73144882  1
  Cr3+  Cr2  1  0.00325335  0.50000000  0.23104099  1
  Cr3+  Cr3  1  0.49674665  0.00000000  0.76895901  1
  Cr3+  Cr4  1  0.24953873  0.27227979  0.24988382  1
  Cr3+  Cr5  1  0.24953873  0.72772021  0.24988382  1
  Cr3+  Cr6  1  0.25046127  0.22772021  0.75011618  1
  Cr3+  Cr7  1  0.25046127  0.77227979  0.75011618  1
  Cr3+  Cr8  1  0.99558099  0.00000000  0.26855118  1
  Cr3+  Cr9  1  0.50441901  0.50000000  0.73144882  1
  Cr3+  Cr10  1  0.50325335  0.00000000  0.23104099  1
  Cr3+  Cr11  1  0.99674665  0.50000000  0.76895901  1
  Cr3+  Cr12  1  0.74953873  0.77227979  0.24988382  1
  Cr3+  Cr13  1  0.74953873  0.22772021  0.24988382  1
  Cr3+  Cr14  1  0.75046127  0.72772021  0.75011618  1
  Cr3+  Cr15  1  0.75046127  0.27227979  0.75011618  1
  Cr4+  Cr16  1  0.50000000  0.50000000  0.00000000  1
  Cr4+  Cr17  1  0.50000000  0.00000000  0.50000000  1
  Cr4+  Cr18  1  0.00000000  0.00000000  0.00000000  1
  Cr4+  Cr19  1  0.00000000  0.50000000  0.50000000  1
  S2-  S20  1  0.34089733  0.50000000  0.85710158  1
  S2-  S21  1  0.16637547  0.00000000  0.62197638  1
  S2-  S22  1  0.33362453  0.50000000  0.37802362  1
  S2-  S23  1  0.34011433  0.00000000  0.35727727  1
  S2-  S24  1  0.15988567  0.50000000  0.64272273  1
  S2-  S25  1  0.33484644  0.00000000  0.87760743  1
  S2-  S26  1  0.16515356  0.50000000  0.12239257  1
  S2-  S27  1  0.08422642  0.73675671  0.37010388  1
  S2-  S28  1  0.08422642  0.26324329  0.37010388  1
  S2-  S29  1  0.41577358  0.76324329  0.62989612  1
  S2-  S30  1  0.41577358  0.23675671  0.62989612  1
  S2-  S31  1  0.08521718  0.76342864  0.87050504  1
  S2-  S32  1  0.08521718  0.23657136  0.87050504  1
  S2-  S33  1  0.41478282  0.73657136  0.12949496  1
  S2-  S34  1  0.41478282  0.26342864  0.12949496  1
  S2-  S35  1  0.15910267  0.00000000  0.14289842  1
  S2-  S36  1  0.84089733  0.00000000  0.85710158  1
  S2-  S37  1  0.66637547  0.50000000  0.62197638  1
  S2-  S38  1  0.83362453  0.00000000  0.37802362  1
  S2-  S39  1  0.84011433  0.50000000  0.35727727  1
  S2-  S40  1  0.65988567  0.00000000  0.64272273  1
  S2-  S41  1  0.83484644  0.50000000  0.87760743  1
  S2-  S42  1  0.66515356  0.00000000  0.12239257  1
  S2-  S43  1  0.58422642  0.23675671  0.37010388  1
  S2-  S44  1  0.58422642  0.76324329  0.37010388  1
  S2-  S45  1  0.91577358  0.26324329  0.62989612  1
  S2-  S46  1  0.91577358  0.73675671  0.62989612  1
  S2-  S47  1  0.58521718  0.26342864  0.87050504  1
  S2-  S48  1  0.58521718  0.73657136  0.87050504  1
  S2-  S49  1  0.91478282  0.23657136  0.12949496  1
  S2-  S50  1  0.91478282  0.76342864  0.12949496  1
  S2-  S51  1  0.65910267  0.50000000  0.14289842  1
